pcf
* control data
             norestart prediction
         7        12         3         0         4
         1         1              single               point         1         0         0
   5.000000E-01   2.000000E+00   3.000000E-01   3.000000E-02   10
   2.000000E-01   2.500000E+00   1.000000E-03
   2.000000E-01
      0   1.000000E-03   1   5   2.000000E-02   4
         1         1         1
* singular value decomposition
1
500 1.000000E-02
1
* lsqr
1
1.000000E-04 1.000000E-04 2.800000E+01 28
0
* parameter groups
P  relative  1.0000000000E-02  0.0001  switch  2.0000000000E+00  parabolic
G  relative  1.0000000000E-02  0.0001  switch  2.0000000000E+00  parabolic
PHINT  relative  1.0000000000E-02  0.0001  switch  2.0000000000E+00  parabolic
* parameter data
G1                    none                  relative              1.5410000000E+01      1.0000000000E+01      5.0000000000E+01      G                     1.0000000000E+00      0.0000000000E+00      1
G2                    none                  relative              4.4710000000E+01      1.0000000000E+01      8.0000000000E+01      G                     1.0000000000E+00      0.0000000000E+00      1
G3                    none                  relative              5.0000000000E-01      5.0000000000E-01      8.0000000000E+00      G                     1.0000000000E+00      0.0000000000E+00      1
P1D                   none                  relative              6.4190000000E+01      0.0000000000E+00      2.0000000000E+02      P                     1.0000000000E+00      0.0000000000E+00      1
P1V                   none                  relative              3.3860000000E+00      0.0000000000E+00      6.0000000000E+01      P                     1.0000000000E+00      0.0000000000E+00      1
P5                    none                  relative              3.5230000000E+02      1.0000000000E+02      9.9900000000E+02      P                     1.0000000000E+00      0.0000000000E+00      1
PHI                   none                  relative              5.1980000000E+01      3.0000000000E+01      1.5000000000E+02      PHINT                 1.0000000000E+00      0.0000000000E+00      1
* observation groups
phenology
yield
lai
biomass
* observation data
Emergence_DAP         7.0000000000E+00      1.0000000000E+00      phenology
Anthesis_DAP          9.7000000000E+01      1.0000000000E+00      phenology
Maturity_DAP          1.4000000000E+02      1.0000000000E+00      phenology
Productwtkgdmhanolos  6.7970000000E+03      1.0000000000E+00      yield
Productunitweightgdm  4.7000000000E-02      1.0000000000E+00      yield
Product_number_nom2   1.4451000000E+04      1.0000000000E+00      yield
Productharvestindexr  4.3000000000E-01      1.0000000000E+00      yield
Maximumleafareaindex  5.7000000000E+00      1.0000000000E+00      lai
Canopytopswtkgdmha    1.5757000000E+04      1.0000000000E+00      biomass
Vegetativewtkgdmha    8.9600000000E+03      1.0000000000E+00      biomass
Product_N_kgha        1.3950000000E+02      1.0000000000E+00      yield
Product_N_            2.1000000000E+00      1.0000000000E+00      yield
* model command line
py C:/pest18/run_dssat.py
* model input/output
"C:\Users\luizv\OneDrive_Purdue\OneDrive - purdue.edu\Thesis\dpest\dpest\wheat\ceres\WHCER048_CUL.TPL" C:/DSSAT48/Genotype/WHCER048.CUL
"C:\Users\luizv\OneDrive_Purdue\OneDrive - purdue.edu\Thesis\dpest\dpest\wheat\ceres\OVERVIEW.ins" C:/DSSAT48/Wheat/OVERVIEW.OUT