pcf
* control data
             restart          estimation
         7         1         3         0         1
         0         0              single               point         1
   2.000000E+01  -3.000000E+00   3.000000E-01   1.000000E-02        -7
   1.000000E+01   1.000000E+01   1.000000E-03
   1.000000E-01
        30   1.000000E-02         3         3   1.000000E-02         3
         0         0         0
* singular value decomposition
         1
  10000000    1.000000E-06
1
* parameter groups
G                      relative              1.0000000000E-02      0.0 switch                2.0000000000E+00      parabolic             1.0000000000E-05      5.0000000000E-01      smaller              
P                      relative              1.0000000000E-02      0.0 switch                2.0000000000E+00      parabolic             1.0000000000E-05      5.0000000000E-01      smaller              
PHINT                  relative              1.0000000000E-02      0.0 switch                2.0000000000E+00      parabolic             1.0000000000E-05      5.0000000000E-01      smaller              
* parameter data
G1                    none                  relative              1.2110000000E+01      1.0000000000E+01      5.0000000000E+01      G                     1.0000000000E+00      0.0000000000E+00      1          
G2                    none                  relative              6.3480000000E+01      1.0000000000E+01      8.0000000000E+01      G                     1.0000000000E+00      0.0000000000E+00      1          
G3                    none                  relative              2.2140000000E+00      5.0000000000E-01      8.0000000000E+00      G                     1.0000000000E+00      0.0000000000E+00      1          
P1D                   none                  relative              1.3120000000E+01      0.0000000000E+00      2.0000000000E+02      P                     1.0000000000E+00      0.0000000000E+00      1          
P1V                   none                  relative              9.3330000000E+00      0.0000000000E+00      6.0000000000E+01      P                     1.0000000000E+00      0.0000000000E+00      1          
P5                    none                  relative              3.3140000000E+02      1.0000000000E+02      9.9900000000E+02      P                     1.0000000000E+00      0.0000000000E+00      1          
PHI                   none                  relative              8.6000000000E+01      3.0000000000E+01      1.5000000000E+02      PHINT                 1.0000000000E+00      0.0000000000E+00      1          
* observation groups
obgnme               
* observation data
obs1                  1.0000000000E+10      1.0000000000E+00      obgnme               
* model command line
model.bat
* model input/output
