pcf
* control data
             restart          estimation
        15        23         5         0         4
         2         2              single               point         1         0         0
   1.000000E+01  -3.000000E+00   3.000000E-01   1.000000E-02        10
   1.000000E+01   1.000000E+01   1.000000E-03
   1.000000E-01
      1000   1.000000E-02         3         3   1.000000E-02         3
         1         1         1
* lsqr
  1
  0.0001  0.0001  28.0  28
  0
* parameter groups
P                      relative              1.0000000000E-02      0.0001 switch                2.0000000000E+00      parabolic             1.0000000000E+00      5.0000000000E-01      smaller              
G                      relative              1.0000000000E-02      0.0001 switch                2.0000000000E+00      parabolic             1.0000000000E+00      5.0000000000E-01      smaller              
PHINT                  relative              1.0000000000E-02      0.0001 switch                2.0000000000E+00      parabolic             1.0000000000E+00      5.0000000000E-01      smaller              
PHEN                   relative              1.0000000000E-02      0.0001 switch                2.0000000000E+00      parabolic             1.0000000000E+00      5.0000000000E-01      smaller              
VERN                   relative              1.0000000000E-02      0.0001 switch                2.0000000000E+00      parabolic             1.0000000000E+00      5.0000000000E-01      smaller              
* parameter data
G1                    none                  relative              1.9660000000E+01      1.0000000000E+01      5.0000000000E+01      G                     1.0000000000E+00      0.0000000000E+00      1          
G2                    none                  relative              4.3640000000E+01      1.0000000000E+01      8.0000000000E+01      G                     1.0000000000E+00      0.0000000000E+00      1          
G3                    none                  relative              6.1540000000E-01      5.0000000000E-01      8.0000000000E+00      G                     1.0000000000E+00      0.0000000000E+00      1          
P1                    none                  relative              3.6200000000E+02      1.0000000000E+02      5.0000000000E+02      PHEN                  1.0000000000E+00      0.0000000000E+00      1          
P1D                   none                  relative              5.0190000000E+01      0.0000000000E+00      2.0000000000E+02      P                     1.0000000000E+00      0.0000000000E+00      1          
P1V                   none                  relative              2.0000000000E+00      0.0000000000E+00      6.0000000000E+01      P                     1.0000000000E+00      0.0000000000E+00      1          
P2                    none                  relative              2.5800000000E+02      1.0000000000E+02      5.0000000000E+02      PHEN                  1.0000000000E+00      0.0000000000E+00      1          
P2F                   none                  relative              2.5000000000E-01      0.0000000000E+00      6.0000000000E-01      PHEN                  1.0000000000E+00      0.0000000000E+00      1          
P3                    none                  relative              1.7200000000E+02      1.0000000000E+02      5.0000000000E+02      PHEN                  1.0000000000E+00      0.0000000000E+00      1          
P4                    none                  relative              2.0000000000E+02      1.0000000000E+02      5.0000000000E+02      PHEN                  1.0000000000E+00      0.0000000000E+00      1          
P41                   none                  relative              1.0000000000E-01      5.0000000000E-02      5.0000000000E-01      PHEN                  1.0000000000E+00      0.0000000000E+00      1          
P4F                   none                  relative              2.5000000000E-01      1.5000000000E-01      3.5000000000E-01      PHEN                  1.0000000000E+00      0.0000000000E+00      1          
P5                    none                  relative              6.4710000000E+02      1.0000000000E+02      9.9900000000E+02      P                     1.0000000000E+00      0.0000000000E+00      1          
PHI                   none                  relative              1.0340000000E+02      3.0000000000E+01      1.5000000000E+02      PHINT                 1.0000000000E+00      0.0000000000E+00      1          
VEF                   none                  relative              5.0000000000E-01      0.0000000000E+00      1.0000000000E+00      VERN                  1.0000000000E+00      0.0000000000E+00      1          
* observation groups
phenology            
yield                
lai                  
biomass              
* observation data
Emergence_DAP         7.0000000000E+00      1.0000000000E+00      phenology            
Anthesis_DAP          9.6000000000E+01      1.0000000000E+00      phenology            
Maturity_DAP          1.3900000000E+02      1.0000000000E+00      phenology            
Productwtkgdmhanolos  6.9330000000E+03      1.0000000000E+00      yield                
Productunitweightgdm  4.2000000000E-02      1.0000000000E+00      yield                
Product_number_nom2   1.6392000000E+04      1.0000000000E+00      yield                
Productharvestindexr  4.1000000000E-01      1.0000000000E+00      yield                
Maximumleafareaindex  6.1000000000E+00      1.0000000000E+00      lai                  
Canopytopswtkgdmha    1.6796000000E+04      1.0000000000E+00      biomass              
Vegetativewtkgdmha    9.8630000000E+03      1.0000000000E+00      biomass              
Product_N_kgha        1.4230000000E+02      1.0000000000E+00      yield                
Product_N_            2.1000000000E+00      1.0000000000E+00      yield                
CWAD_2023012          2.7230000000E+03      1.0000000000E+00      biomass              
LAID_2023013          5.2800000000E+00      1.0000000000E+00      lai                  
LAID_2023020          5.5400000000E+00      1.0000000000E+00      lai                  
LAID_2023033          5.6300000000E+00      1.0000000000E+00      lai                  
LAID_2023046          5.8500000000E+00      1.0000000000E+00      lai                  
LAID_2023054          5.7900000000E+00      1.0000000000E+00      lai                  
CWAD_2023065          2.0466000000E+04      1.0000000000E+00      biomass              
LAID_2023073          4.4200000000E+00      1.0000000000E+00      lai                  
LAID_2023089          2.4400000000E+00      1.0000000000E+00      lai                  
CWAD_2023100          1.6796000000E+04      1.0000000000E+00      biomass              
LAID_2023114          4.0000000000E-01      1.0000000000E+00      lai                  
* model command line
py "C:\pest18\run_dssat.py"
* model input/output
"C:\Users\luizv\OneDrive_Purdue\OneDrive - purdue.edu\Thesis\dpest\docs\WHCER048_CUL.TPL" C://DSSAT48/Genotype/WHCER048.CUL
"C:\Users\luizv\OneDrive_Purdue\OneDrive - purdue.edu\Thesis\dpest\docs\WHCER048_ECO.TPL" C:/DSSAT48/Genotype/WHCER048.ECO
"C:\Users\luizv\OneDrive_Purdue\OneDrive - purdue.edu\Thesis\dpest\docs\OVERVIEW.ins" C://DSSAT48/Wheat/OVERVIEW.OUT
"C:\Users\luizv\OneDrive_Purdue\OneDrive - purdue.edu\Thesis\dpest\docs\PlantGro.ins" C:/DSSAT48/Wheat/PlantGro.OUT
